data_VO2_rut_ini

_audit_creation_date               2017-02-22
_audit_creation_method             'generated by MedeA 2.21.6672'

_chemical_formula_sum              'O2V'

_symmetry_space_group_name_H-M     'P4_2/mnm'
_symmetry_Int_Tables_number        136

_cell_length_a                     4.55460
_cell_length_b                     4.55460
_cell_length_c                     2.85140
_cell_angle_alpha                  90.00
_cell_angle_beta                   90.00
_cell_angle_gamma                  90.00
_cell_volume                       59.15
_cell_formula_units_Z              2

loop_
_atom_site_label
_atom_site_symmetry_multiplicity
_atom_site_Wyckoff_symbol
_atom_site_fract_x
_atom_site_fract_y
_atom_site_fract_z
_atom_site_occupancy
V        2 a   0.00000   0.00000   0.00000 1.0
O        4 f   0.30010   0.30010   0.00000 1.0
